*Heading
** Job name: Job-1 Model name: Model-1
** Generated by: Abaqus/CAE 6.13-1
*Preprint, echo=NO, model=NO, history=NO, contact=NO
**
** PARTS
**
*Part, name=honeycomb
*Node
      1,  0.899999976,           0.,          20.
      2, -0.899999976,           0.,          20.
      3, -0.899999976,           0.,           0.
      4,  0.899999976,           0.,           0.
      5,  -1.79999995,   1.55884576,          20.
      6,  -1.79999995,   1.55884576,           0.
      7,  -1.79999995,  -1.55884576,          20.
      8,  -1.79999995,  -1.55884576,           0.
      9,   -3.5999999,  -1.55884576,          20.
     10,   -3.5999999,  -1.55884576,           0.
     11,   1.79999995,   1.55884576,          20.
     12,   1.79999995,   1.55884576,           0.
     13,   1.79999995,  -1.55884576,          20.
     14,   1.79999995,  -1.55884576,           0.
     15,   6.30000019,           0.,          20.
     16,          4.5,           0.,          20.
     17,          4.5,           0.,           0.
     18,   6.30000019,           0.,           0.
     19,    3.5999999,   1.55884576,          20.
     20,    3.5999999,   1.55884576,           0.
** ... 9880 like lines cut
*Element, type=S4R
 1,    1,  753, 5185,  772
 2,  753,    2,  754, 5185
 3,  772, 5185, 5186,  771
 4, 5185,  754,  755, 5186
 5,  771, 5186, 5187,  770
 6, 5186,  755,  756, 5187
 7,  770, 5187, 5188,  769
 8, 5187,  756,  757, 5188
 9,  769, 5188, 5189,  768
10, 5188,  757,  758, 5189
11,  768, 5189, 5190,  767
12, 5189,  758,  759, 5190
13,  767, 5190, 5191,  766
14, 5190,  759,  760, 5191
15,  766, 5191, 5192,  765
16, 5191,  760,  761, 5192
17,  765, 5192, 5193,  764
18, 5192,  761,  762, 5193
19,  764, 5193,  763,    4
20, 5193,  762,    3,  763
** ... 10460 like lines cut
*Nset, nset=_PickedSet2, internal
    1,    2,    3,    4,    5,    6,    7,    8,    9,   10,   11,   12,   13,   14,   15,   16
   17,   18,   19,   20,   21,   22,   23,   24,   25,   26,   27,   28,   29,   30,   31,   32
   33,   34,   35,   36,   37,   38,   39,   40,   41,   42,   43,   44,   45,   46,   47,   48
   49,   50,   51,   52,   53,   54,   55,   56,   57,   58,   59,   60,   61,   62,   63,   64
   65,   66,   67,   68,   69,   70,   71,   72,   73,   74,   75,   76,   77,   78,   79,   80
   81,   82,   83,   84,   85,   86,   87,   88,   89,   90,   91,   92,   93,   94,   95,   96
   97,   98,   99,  100,  101,  102,  103,  104,  105,  106,  107,  108,  109,  110,  111,  112
  113,  114,  115,  116,  117,  118,  119,  120,  121,  122,  123,  124,  125,  126,  127,  128
  129,  130,  131,  132,  133,  134,  135,  136,  137,  138,  139,  140,  141,  142,  143,  144
  145,  146,  147,  148,  149,  150,  151,  152,  153,  154,  155,  156,  157,  158,  159,  160
  161,  162,  163,  164,  165,  166,  167,  168,  169,  170,  171,  172,  173,  174,  175,  176
  177,  178,  179,  180,  181,  182,  183,  184,  185,  186,  187,  188,  189,  190,  191,  192
  193,  194,  195,  196,  197,  198,  199,  200,  201,  202,  203,  204,  205,  206,  207,  208
  209,  210,  211,  212,  213,  214,  215,  216,  217,  218,  219,  220,  221,  222,  223,  224
  225,  226,  227,  228,  229,  230,  231,  232,  233,  234,  235,  236,  237,  238,  239,  240
  241,  242,  243,  244,  245,  246,  247,  248,  249,  250,  251,  252,  253,  254,  255,  256
  257,  258,  259,  260,  261,  262,  263,  264,  265,  266,  267,  268,  269,  270,  271,  272
  273,  274,  275,  276,  277,  278,  279,  280,  281,  282,  283,  284,  285,  286,  287,  288
  289,  290,  291,  292,  293,  294,  295,  296,  297,  298,  299,  300,  301,  302,  303,  304
  305,  306,  307,  308,  309,  310,  311,  312,  313,  314,  315,  316,  317,  318,  319,  320
** ... 368 like lines cut
*Elset, elset=_PickedSet2, internal
     1,     2,     3,     4,     5,     6,     7,     8,     9,    10,    11,    12,    13,    14,    15,    16
    17,    18,    19,    20,    61,    62,    63,    64,    65,    66,    67,    68,    69,    70,    71,    72
    73,    74,    75,    76,    77,    78,    79,    80,   121,   122,   123,   124,   125,   126,   127,   128
   129,   130,   131,   132,   133,   134,   135,   136,   137,   138,   139,   140,   181,   182,   183,   184
   185,   186,   187,   188,   189,   190,   191,   192,   193,   194,   195,   196,   197,   198,   199,   200
   241,   242,   243,   244,   245,   246,   247,   248,   249,   250,   251,   252,   253,   254,   255,   256
   257,   258,   259,   260,   301,   302,   303,   304,   305,   306,   307,   308,   309,   310,   311,   312
   313,   314,   315,   316,   317,   318,   319,   320,   361,   362,   363,   364,   365,   366,   367,   368
   369,   370,   371,   372,   373,   374,   375,   376,   377,   378,   379,   380,   421,   422,   423,   424
   425,   426,   427,   428,   429,   430,   431,   432,   433,   434,   435,   436,   437,   438,   439,   440
   481,   482,   483,   484,   485,   486,   487,   488,   489,   490,   491,   492,   493,   494,   495,   496
   497,   498,   499,   500,   541,   542,   543,   544,   545,   546,   547,   548,   549,   550,   551,   552
   553,   554,   555,   556,   557,   558,   559,   560,   601,   602,   603,   604,   605,   606,   607,   608
   609,   610,   611,   612,   613,   614,   615,   616,   617,   618,   619,   620,   661,   662,   663,   664
   665,   666,   667,   668,   669,   670,   671,   672,   673,   674,   675,   676,   677,   678,   679,   680
   721,   722,   723,   724,   725,   726,   727,   728,   729,   730,   731,   732,   733,   734,   735,   736
   737,   738,   739,   740,   781,   782,   783,   784,   785,   786,   787,   788,   789,   790,   791,   792
   793,   794,   795,   796,   797,   798,   799,   800,   821,   822,   823,   824,   825,   826,   827,   828
   829,   830,   831,   832,   833,   834,   835,   836,   837,   838,   839,   840,   881,   882,   883,   884
   885,   886,   887,   888,   889,   890,   891,   892,   893,   894,   895,   896,   897,   898,   899,   900
** ... 215 like lines cut
*Nset, nset=_PickedSet3, internal
    1,    2,    3,    4,    5,    6,    7,    8,   11,   12,   13,   14,   15,   16,   17,   18
   19,   20,   21,   22,   23,   24,   25,   26,   27,   28,   29,   30,   31,   32,   33,   34
   35,   36,   37,   38,   39,   40,   41,   42,   43,   44,   45,   46,   47,   48,   49,   50
   51,   52,   53,   54,   55,   56,   57,   58,   59,   60,   61,   62,   63,   64,   65,   66
   67,   68,   69,   70,   71,   72,   73,   74,   75,   76,   77,   78,   79,   80,   81,   82
   83,   84,   85,   86,   87,   88,   89,   90,   93,   94,   95,   96,   97,   98,   99,  100
  101,  102,  103,  104,  105,  106,  107,  108,  109,  110,  111,  112,  113,  114,  115,  116
  117,  118,  119,  120,  121,  122,  123,  124,  125,  126,  127,  128,  129,  130,  131,  132
  133,  134,  135,  136,  137,  138,  139,  140,  141,  142,  143,  144,  145,  146,  147,  148
  151,  152,  153,  154,  155,  156,  157,  158,  159,  160,  161,  162,  163,  164,  165,  166
  167,  168,  169,  170,  171,  172,  173,  174,  175,  176,  177,  178,  179,  180,  181,  182
  183,  184,  185,  186,  187,  188,  189,  190,  191,  192,  193,  194,  195,  196,  197,  198
  199,  200,  201,  202,  203,  204,  205,  206,  209,  210,  211,  212,  213,  214,  215,  216
  217,  218,  219,  220,  221,  222,  223,  224,  225,  226,  227,  228,  229,  230,  231,  232
  233,  234,  235,  236,  237,  238,  239,  240,  241,  242,  243,  244,  245,  246,  247,  248
  249,  250,  251,  252,  253,  254,  255,  256,  257,  258,  259,  260,  261,  262,  263,  264
  267,  268,  269,  270,  271,  272,  273,  274,  275,  276,  277,  278,  279,  280,  281,  282
  283,  284,  285,  286,  287,  288,  289,  290,  291,  292,  293,  294,  295,  296,  297,  298
  299,  300,  301,  302,  303,  304,  305,  306,  307,  308,  309,  310,  311,  312,  313,  314
  315,  316,  317,  318,  319,  320,  321,  322,  325,  326,  327,  328,  329,  330,  331,  332
** ... 452 like lines cut
*Elset, elset=_PickedSet3, internal
    21,    22,    23,    24,    25,    26,    27,    28,    29,    30,    31,    32,    33,    34,    35,    36
    37,    38,    39,    40,    41,    42,    43,    44,    45,    46,    47,    48,    49,    50,    51,    52
    53,    54,    55,    56,    57,    58,    59,    60,    81,    82,    83,    84,    85,    86,    87,    88
    89,    90,    91,    92,    93,    94,    95,    96,    97,    98,    99,   100,   101,   102,   103,   104
   105,   106,   107,   108,   109,   110,   111,   112,   113,   114,   115,   116,   117,   118,   119,   120
   141,   142,   143,   144,   145,   146,   147,   148,   149,   150,   151,   152,   153,   154,   155,   156
   157,   158,   159,   160,   161,   162,   163,   164,   165,   166,   167,   168,   169,   170,   171,   172
   173,   174,   175,   176,   177,   178,   179,   180,   201,   202,   203,   204,   205,   206,   207,   208
   209,   210,   211,   212,   213,   214,   215,   216,   217,   218,   219,   220,   221,   222,   223,   224
   225,   226,   227,   228,   229,   230,   231,   232,   233,   234,   235,   236,   237,   238,   239,   240
   261,   262,   263,   264,   265,   266,   267,   268,   269,   270,   271,   272,   273,   274,   275,   276
   277,   278,   279,   280,   281,   282,   283,   284,   285,   286,   287,   288,   289,   290,   291,   292
   293,   294,   295,   296,   297,   298,   299,   300,   321,   322,   323,   324,   325,   326,   327,   328
   329,   330,   331,   332,   333,   334,   335,   336,   337,   338,   339,   340,   341,   342,   343,   344
   345,   346,   347,   348,   349,   350,   351,   352,   353,   354,   355,   356,   357,   358,   359,   360
   381,   382,   383,   384,   385,   386,   387,   388,   389,   390,   391,   392,   393,   394,   395,   396
   397,   398,   399,   400,   401,   402,   403,   404,   405,   406,   407,   408,   409,   410,   411,   412
   413,   414,   415,   416,   417,   418,   419,   420,   441,   442,   443,   444,   445,   446,   447,   448
   449,   450,   451,   452,   453,   454,   455,   456,   457,   458,   459,   460,   461,   462,   463,   464
   465,   466,   467,   468,   469,   470,   471,   472,   473,   474,   475,   476,   477,   478,   479,   480
** ... 400 like lines cut
** Section: honeythickness2
*Shell Section, elset=_PickedSet2, material=Material-1
0.1, 5
** Section: honeythickness1
*Shell Section, elset=_PickedSet3, material=Material-1
0.05, 5
*End Part
**  
**
** ASSEMBLY
**
*Assembly, name=Assembly
**  
*Instance, name=honeycomb-1, part=honeycomb
*End Instance
**  
*Nset, nset=Set-1, instance=honeycomb-1
    1,    2,    5,    7,    9,   11,   13,   15,   16,   19,   21,   23,   25,   27,   28,   31
   33,   35,   37,   39,   40,   43,   45,   47,   49,   51,   52,   55,   57,   59,   61,   63
   64,   67,   69,   71,   73,   75,   76,   79,   81,   83,   85,   86,   89,   91,   93,   95
   96,   99,  101,  103,  104,  107,  109,  111,  112,  115,  117,  119,  120,  123,  125,  127
  128,  131,  133,  135,  136,  139,  141,  143,  144,  147,  149,  151,  153,  154,  157,  159
  161,  162,  165,  167,  169,  170,  173,  175,  177,  178,  181,  183,  185,  186,  189,  191
  193,  194,  197,  199,  201,  202,  205,  207,  209,  211,  212,  215,  217,  219,  220,  223
  225,  227,  228,  231,  233,  235,  236,  239,  241,  243,  244,  247,  249,  251,  252,  255
  257,  259,  260,  263,  265,  267,  269,  270,  273,  275,  277,  278,  281,  283,  285,  286
  289,  291,  293,  294,  297,  299,  301,  302,  305,  307,  309,  310,  313,  315,  317,  318
  321,  323,  325,  327,  328,  331,  333,  335,  336,  339,  341,  343,  344,  347,  349,  351
  352,  355,  357,  359,  360,  363,  365,  367,  368,  371,  373,  375,  376,  379,  381,  383
  385,  386,  389,  391,  393,  394,  397,  399,  401,  402,  405,  407,  409,  410,  413,  415
  417,  418,  421,  423,  425,  426,  429,  431,  433,  434,  437,  439,  441,  443,  444,  447
  449,  451,  452,  455,  457,  459,  460,  463,  465,  467,  468,  471,  473,  475,  476,  479
  481,  483,  484,  487,  489,  491,  492,  495,  497,  499,  501,  502,  505,  507,  509,  510
  513,  515,  517,  518,  521,  523,  525,  526,  529,  531,  533,  534,  537,  539,  541,  542
  545,  547,  549,  550,  553,  555,  557,  559,  560,  563,  565,  567,  568,  571,  573,  575
  576,  579,  581,  583,  584,  587,  589,  591,  592,  595,  597,  599,  600,  603,  605,  607
  608,  611,  613,  615,  617,  618,  621,  623,  625,  626,  629,  631,  633,  634,  637,  639
** ... 37 like lines cut
*Elset, elset=Set-1, instance=honeycomb-1
     1,     2,    21,    22,    41,    42,    61,    62,    81,    82,   101,   102,   121,   122,   141,   142
   161,   162,   181,   182,   201,   202,   221,   222,   241,   242,   261,   262,   281,   282,   301,   302
   321,   322,   341,   342,   361,   362,   381,   382,   401,   402,   421,   422,   441,   442,   461,   462
   481,   482,   501,   502,   521,   522,   541,   542,   561,   562,   581,   582,   601,   602,   621,   622
   641,   642,   661,   662,   681,   682,   701,   702,   721,   722,   741,   742,   761,   762,   781,   782
   801,   802,   821,   822,   841,   842,   861,   862,   881,   882,   901,   902,   921,   922,   941,   942
   961,   962,   981,   982,  1001,  1002,  1021,  1022,  1041,  1042,  1061,  1062,  1081,  1082,  1101,  1102
  1121,  1122,  1141,  1142,  1161,  1162,  1181,  1182,  1201,  1202,  1221,  1222,  1241,  1242,  1261,  1262
  1281,  1282,  1301,  1302,  1321,  1322,  1341,  1342,  1361,  1362,  1381,  1382,  1401,  1402,  1421,  1422
  1441,  1442,  1461,  1462,  1481,  1482,  1501,  1502,  1521,  1522,  1541,  1542,  1561,  1562,  1581,  1582
  1601,  1602,  1621,  1622,  1641,  1642,  1661,  1662,  1681,  1682,  1701,  1702,  1721,  1722,  1741,  1742
  1761,  1762,  1781,  1782,  1801,  1802,  1821,  1822,  1841,  1842,  1861,  1862,  1881,  1882,  1901,  1902
  1921,  1922,  1941,  1942,  1961,  1962,  1981,  1982,  2001,  2002,  2021,  2022,  2041,  2042,  2061,  2062
  2081,  2082,  2101,  2102,  2121,  2122,  2141,  2142,  2161,  2162,  2181,  2182,  2201,  2202,  2221,  2222
  2241,  2242,  2261,  2262,  2281,  2282,  2301,  2302,  2321,  2322,  2341,  2342,  2361,  2362,  2381,  2382
  2401,  2402,  2421,  2422,  2441,  2442,  2461,  2462,  2481,  2482,  2501,  2502,  2521,  2522,  2541,  2542
  2561,  2562,  2581,  2582,  2601,  2602,  2621,  2622,  2641,  2642,  2661,  2662,  2681,  2682,  2701,  2702
  2721,  2722,  2741,  2742,  2761,  2762,  2781,  2782,  2801,  2802,  2821,  2822,  2841,  2842,  2861,  2862
  2881,  2882,  2901,  2902,  2921,  2922,  2941,  2942,  2961,  2962,  2981,  2982,  3001,  3002,  3021,  3022
  3041,  3042,  3061,  3062,  3081,  3082,  3101,  3102,  3121,  3122,  3141,  3142,  3161,  3162,  3181,  3182
** ... 46 like lines cut
*Elset, elset=_Surf-1_SPOS, internal, instance=honeycomb-1
    41,    42,    43,    44,    45,    46,    47,    48,    49,    50,    51,    52,    53,    54,    55,    56
    57,    58,    59,    60,   101,   102,   103,   104,   105,   106,   107,   108,   109,   110,   111,   112
   113,   114,   115,   116,   117,   118,   119,   120,   161,   162,   163,   164,   165,   166,   167,   168
   169,   170,   171,   172,   173,   174,   175,   176,   177,   178,   179,   180,   181,   182,   183,   184
   185,   186,   187,   188,   189,   190,   191,   192,   193,   194,   195,   196,   197,   198,   199,   200
   221,   222,   223,   224,   225,   226,   227,   228,   229,   230,   231,   232,   233,   234,   235,   236
   237,   238,   239,   240,   281,   282,   283,   284,   285,   286,   287,   288,   289,   290,   291,   292
   293,   294,   295,   296,   297,   298,   299,   300,   301,   302,   303,   304,   305,   306,   307,   308
   309,   310,   311,   312,   313,   314,   315,   316,   317,   318,   319,   320,   341,   342,   343,   344
   345,   346,   347,   348,   349,   350,   351,   352,   353,   354,   355,   356,   357,   358,   359,   360
   401,   402,   403,   404,   405,   406,   407,   408,   409,   410,   411,   412,   413,   414,   415,   416
   417,   418,   419,   420,   421,   422,   423,   424,   425,   426,   427,   428,   429,   430,   431,   432
   433,   434,   435,   436,   437,   438,   439,   440,   461,   462,   463,   464,   465,   466,   467,   468
   469,   470,   471,   472,   473,   474,   475,   476,   477,   478,   479,   480,   521,   522,   523,   524
   525,   526,   527,   528,   529,   530,   531,   532,   533,   534,   535,   536,   537,   538,   539,   540
   541,   542,   543,   544,   545,   546,   547,   548,   549,   550,   551,   552,   553,   554,   555,   556
   557,   558,   559,   560,   581,   582,   583,   584,   585,   586,   587,   588,   589,   590,   591,   592
   593,   594,   595,   596,   597,   598,   599,   600,   641,   642,   643,   644,   645,   646,   647,   648
   649,   650,   651,   652,   653,   654,   655,   656,   657,   658,   659,   660,   661,   662,   663,   664
   665,   666,   667,   668,   669,   670,   671,   672,   673,   674,   675,   676,   677,   678,   679,   680
** ... 34 like lines cut
*Surface, type=ELEMENT, name=Surf-1
_Surf-1_SPOS, SPOS
*End Assembly
** 
** MATERIALS
** 
*Material, name=Material-1
*Elastic
70000., 0.3
** 
** BOUNDARY CONDITIONS
** 
** Name: BC-1 Type: Symmetry/Antisymmetry/Encastre
*Boundary
Set-1, ENCASTRE
** ----------------------------------------------------------------
** 
** STEP: Step-1
** 
*Step, name=Step-1, nlgeom=YES
*Static
1., 1., 1e-05, 1.
** 
** LOADS
** 
** Name: Load-1   Type: Pressure
*Dsload
Surf-1, P, 10.
** 
** OUTPUT REQUESTS
** 
*Restart, write, frequency=0
** 
** FIELD OUTPUT: F-Output-1
** 
*Output, field, variable=PRESELECT
** 
** HISTORY OUTPUT: H-Output-1
** 
*Output, history, variable=PRESELECT
*End Step
